pglib-opf-master/pglib_opf_case300_ieee.m
%%%%%%%%%%%%%%%%%%%%%%%%%%%%%%%%%%%%%%%%%%%%%%%%%%%%%%%%%%%%%%%%%%%%%%%%%%%
%%%%                                                                  %%%%%
%%%%    IEEE PES Power Grid Library - Optimal Power Flow - v20.07     %%%%%
%%%%          (https://github.com/power-grid-lib/pglib-opf)           %%%%%
%%%%               Benchmark Group - Typical Operations               %%%%%
%%%%                         12 - July - 2020                         %%%%%
%%%%                                                                  %%%%%
%%%%%%%%%%%%%%%%%%%%%%%%%%%%%%%%%%%%%%%%%%%%%%%%%%%%%%%%%%%%%%%%%%%%%%%%%%%
%
%   Power flow data for IEEE 300 bus test case.
%   This data was converted from IEEE Common Data Format
%   (ieee300cdf.txt) on 20-Sep-2004 by cdf2matp, rev. 1.11
%
%   Converted from IEEE CDF file from:
%       http://www.ee.washington.edu/research/pstca/
%
%   Copyright (c) 1999 by Richard D. Christie, University of Washington
%   Electrical Engineering Licensed under the Creative Commons Attribution 4.0
%   International license, http://creativecommons.org/licenses/by/4.0/
%
%   CDF Header:
%   13/05/91 CYME INTERNATIONAL    100.0 1991 S IEEE 300-BUS TEST SYSTEM
%
function mpc = pglib_opf_case300_ieee
mpc.version = '2';
mpc.baseMVA = 100.0;

%% bus data
%	bus_i	type	Pd	Qd	Gs	Bs	area	Vm	Va	baseKV	zone	Vmax	Vmin
mpc.bus = [
	1	 1	 90.0	 49.0	 0.0	 0.0	 1	    1.00000	    0.00000	 115.0	 1	    1.06000	    0.94000;
	2	 1	 56.0	 15.0	 0.0	 0.0	 1	    1.00000	    0.00000	 115.0	 1	    1.06000	    0.94000;
	3	 1	 20.0	 0.0	 0.0	 0.0	 1	    1.00000	    0.00000	 230.0	 1	    1.06000	    0.94000;
	4	 1	 0.0	 0.0	 0.0	 0.0	 1	    1.00000	    0.00000	 345.0	 1	    1.06000	    0.94000;
	5	 1	 353.0	 130.0	 0.0	 0.0	 1	    1.00000	    0.00000	 115.0	 1	    1.06000	    0.94000;
	6	 1	 120.0	 41.0	 0.0	 0.0	 1	    1.00000	    0.00000	 115.0	 1	    1.06000	    0.94000;
	7	 1	 0.0	 0.0	 0.0	 0.0	 1	    1.00000	    0.00000	 230.0	 1	    1.06000	    0.94000;
	8	 2	 63.0	 14.0	 0.0	 0.0	 1	    1.00000	    0.00000	 115.0	 1	    1.06000	    0.94000;
	9	 1	 96.0	 43.0	 0.0	 0.0	 1	    1.00000	    0.00000	 115.0	 1	    1.06000	    0.94000;
	10	 2	 153.0	 33.0	 0.0	 0.0	 1	    1.00000	    0.00000	 230.0	 1	    1.06000	    0.94000;
	11	 1	 83.0	 21.0	 0.0	 0.0	 1	    1.00000	    0.00000	 115.0	 1	    1.06000	    0.94000;
	12	 1	 0.0	 0.0	 0.0	 0.0	 1	    1.00000	    0.00000	 230.0	 1	    1.06000	    0.94000;
	13	 1	 58.0	 10.0	 0.0	 0.0	 1	    1.00000	    0.00000	 115.0	 1	    1.06000	    0.94000;
	14	 1	 160.0	 60.0	 0.0	 0.0	 1	    1.00000	    0.00000	 115.0	 1	    1.06000	    0.94000;
	15	 1	 126.7	 23.0	 0.0	 0.0	 1	    1.00000	    0.00000	 115.0	 1	    1.06000	    0.94000;
	16	 1	 0.0	 0.0	 0.0	 0.0	 1	    1.00000	    0.00000	 345.0	 1	    1.06000	    0.94000;
	17	 1	 561.0	 220.0	 0.0	 0.0	 1	    1.00000	    0.00000	 115.0	 1	    1.06000	    0.94000;
	19	 1	 0.0	 0.0	 0.0	 0.0	 1	    1.00000	    0.00000	 230.0	 1	    1.06000	    0.94000;
	20	 2	 605.0	 120.0	 0.0	 0.0	 1	    1.00000	    0.00000	 115.0	 1	    1.06000	    0.94000;
	21	 1	 77.0	 1.0	 0.0	 0.0	 1	    1.00000	    0.00000	 230.0	 1	    1.06000	    0.94000;
	22	 1	 81.0	 23.0	 0.0	 0.0	 1	    1.00000	    0.00000	 115.0	 1	    1.06000	    0.94000;
	23	 1	 21.0	 7.0	 0.0	 0.0	 1	    1.00000	    0.00000	 115.0	 1	    1.06000	    0.94000;
	24	 1	 0.0	 0.0	 0.0	 0.0	 1	    1.00000	    0.00000	 230.0	 1	    1.06000	    0.94000;
	25	 1	 45.0	 12.0	 0.0	 0.0	 1	    1.00000	    0.00000	 115.0	 1	    1.06000	    0.94000;
	26	 1	 28.0	 9.0	 0.0	 0.0	 1	    1.00000	    0.00000	 115.0	 1	    1.06000	    0.94000;
	27	 1	 69.0	 13.0	 0.0	 0.0	 1	    1.00000	    0.00000	 115.0	 1	    1.06000	    0.94000;
	33	 1	 55.0	 6.0	 0.0	 0.0	 1	    1.00000	    0.00000	 115.0	 1	    1.06000	    0.94000;
	34	 1	 0.0	 0.0	 0.0	 0.0	 1	    1.00000	    0.00000	 345.0	 1	    1.06000	    0.94000;
	35	 1	 0.0	 0.0	 0.0	 0.0	 1	    1.00000	    0.00000	 115.0	 1	    1.06000	    0.94000;
	36	 1	 0.0	 0.0	 0.0	 0.0	 1	    1.00000	    0.00000	 230.0	 1	    1.06000	    0.94000;
	37	 1	 85.0	 32.0	 0.0	 0.0	 1	    1.00000	    0.00000	 115.0	 1	    1.06000	    0.94000;
	38	 1	 155.0	 18.0	 0.0	 0.0	 1	    1.00000	    0.00000	 115.0	 1	    1.06000	    0.94000;
	39	 1	 0.0	 0.0	 0.0	 0.0	 1	    1.00000	    0.00000	 345.0	 1	    1.06000	    0.94000;
	40	 1	 46.0	 -21.0	 0.0	 0.0	 1	    1.00000	    0.00000	 115.0	 1	    1.06000	    0.94000;
	41	 1	 86.0	 0.0	 0.0	 0.0	 1	    1.00000	    0.00000	 115.0	 1	    1.06000	    0.94000;
	42	 1	 0.0	 0.0	 0.0	 0.0	 1	    1.00000	    0.00000	 345.0	 1	    1.06000	    0.94000;
	43	 1	 39.0	 9.0	 0.0	 0.0	 1	    1.00000	    0.00000	 115.0	 1	    1.06000	    0.94000;
	44	 1	 195.0	 29.0	 0.0	 0.0	 1	    1.00000	    0.00000	 115.0	 1	    1.06000	    0.94000;
	45	 1	 0.0	 0.0	 0.0	 0.0	 1	    1.00000	    0.00000	 230.0	 1	    1.06000	    0.94000;
	46	 1	 0.0	 0.0	 0.0	 0.0	 1	    1.00000	    0.00000	 345.0	 1	    1.06000	    0.94000;
	47	 1	 58.0	 11.8	 0.0	 0.0	 1	    1.00000	    0.00000	 115.0	 1	    1.06000	    0.94000;
	48	 1	 41.0	 19.0	 0.0	 0.0	 1	    1.00000	    0.00000	 115.0	 1	    1.06000	    0.94000;
	49	 1	 92.0	 26.0	 0.0	 0.0	 1	    1.00000	    0.00000	 115.0	 1	    1.06000	    0.94000;
	51	 1	 -5.0	 5.0	 0.0	 0.0	 1	    1.00000	    0.00000	 115.0	 1	    1.06000	    0.94000;
	52	 1	 61.0	 28.0	 0.0	 0.0	 1	    1.00000	    0.00000	 115.0	 1	    1.06000	    0.94000;
	53	 1	 69.0	 3.0	 0.0	 0.0	 1	    1.00000	    0.00000	 115.0	 1	    1.06000	    0.94000;
	54	 1	 10.0	 1.0	 0.0	 0.0	 1	    1.00000	    0.00000	 115.0	 1	    1.06000	    0.94000;
	55	 1	 22.0	 10.0	 0.0	 0.0	 1	    1.00000	    0.00000	 115.0	 1	    1.06000	    0.94000;
	57	 1	 98.0	 20.0	 0.0	 0.0	 1	    1.00000	    0.00000	 115.0	 1	    1.06000	    0.94000;
	58	 1	 14.0	 1.0	 0.0	 0.0	 1	    1.00000	    0.00000	 115.0	 1	    1.06000	    0.94000;
	59	 1	 218.0	 106.0	 0.0	 0.0	 1	    1.00000	    0.00000	 115.0	 1	    1.06000	    0.94000;
	60	 1	 0.0	 0.0	 0.0	 0.0	 1	    1.00000	    0.00000	 230.0	 1	    1.06000	    0.94000;
	61	 1	 227.0	 110.0	 0.0	 0.0	 1	    1.00000	    0.00000	 115.0	 1	    1.06000	    0.94000;
	62	 1	 0.0	 0.0	 0.0	 0.0	 1	    1.00000	    0.00000	 230.0	 1	    1.06000	    0.94000;
	63	 2	 70.0	 30.0	 0.0	 0.0	 1	    1.00000	    0.00000	 115.0	 1	    1.06000	    0.94000;
	64	 1	 0.0	 0.0	 0.0	 0.0	 1	    1.00000	    0.00000	 230.0	 1	    1.06000	    0.94000;
	69	 1	 0.0	 0.0	 0.0	 0.0	 1	    1.00000	    0.00000	 115.0	 1	    1.06000	    0.94000;
	70	 1	 56.0	 20.0	 0.0	 0.0	 1	    1.00000	    0.00000	 115.0	 1	    1.06000	    0.94000;
	71	 1	 116.0	 38.0	 0.0	 0.0	 1	    1.00000	    0.00000	 115.0	 1	    1.06000	    0.94000;
	72	 1	 57.0	 19.0	 0.0	 0.0	 1	    1.00000	    0.00000	 115.0	 1	    1.06000	    0.94000;
	73	 1	 224.0	 71.0	 0.0	 0.0	 1	    1.00000	    0.00000	 115.0	 1	    1.06000	    0.94000;
	74	 1	 0.0	 0.0	 0.0	 0.0	 1	    1.00000	    0.00000	 230.0	 1	    1.06000	    0.94000;
	76	 2	 208.0	 107.0	 0.0	 0.0	 1	    1.00000	    0.00000	 115.0	 1	    1.06000	    0.94000;
	77	 1	 74.0	 28.0	 0.0	 0.0	 1	    1.00000	    0.00000	 115.0	 1	    1.06000	    0.94000;
	78	 1	 0.0	 0.0	 0.0	 0.0	 1	    1.00000	    0.00000	 115.0	 1	    1.06000	    0.94000;
	79	 1	 48.0	 14.0	 0.0	 0.0	 1	    1.00000	    0.00000	 115.0	 1	    1.06000	    0.94000;
	80	 1	 28.0	 7.0	 0.0	 0.0	 1	    1.00000	    0.00000	 115.0	 1	    1.06000	    0.94000;
	81	 1	 0.0	 0.0	 0.0	 0.0	 1	    1.00000	    0.00000	 345.0	 1	    1.06000	    0.94000;
	84	 2	 37.0	 13.0	 0.0	 0.0	 1	    1.00000	    0.00000	 115.0	 1	    1.06000	    0.94000;
	85	 1	 0.0	 0.0	 0.0	 0.0	 1	    1.00000	    0.00000	 230.0	 1	    1.06000	    0.94000;
	86	 1	 0.0	 0.0	 0.0	 0.0	 1	    1.00000	    0.00000	 230.0	 1	    1.06000	    0.94000;
	87	 1	 0.0	 0.0	 0.0	 0.0	 1	    1.00000	    0.00000	 230.0	 1	    1.06000	    0.94000;
	88	 1	 0.0	 0.0	 0.0	 0.0	 1	    1.00000	    0.00000	 230.0	 1	    1.06000	    0.94000;
	89	 1	 44.2	 0.0	 0.0	 0.0	 1	    1.00000	    0.00000	 115.0	 1	    1.06000	    0.94000;
	90	 1	 66.0	 0.0	 0.0	 0.0	 1	    1.00000	    0.00000	 115.0	 1	    1.06000	    0.94000;
	91	 2	 17.4	 0.0	 0.0	 0.0	 1	    1.00000	    0.00000	 115.0	 1	    1.06000	    0.94000;
	92	 2	 15.8	 0.0	 0.0	 0.0	 1	    1.00000	    0.00000	 115.0	 1	    1.06000	    0.94000;
	94	 1	 60.3	 0.0	 0.0	 0.0	 1	    1.00000	    0.00000	 115.0	 1	    1.06000	    0.94000;
	97	 1	 39.9	 0.0	 0.0	 0.0	 1	    1.00000	    0.00000	 115.0	 1	    1.06000	    0.94000;
	98	 2	 66.7	 0.0	 0.0	 0.0	 1	    1.00000	    0.00000	 115.0	 1	    1.06000	    0.94000;
	99	 1	 83.5	 0.0	 0.0	 0.0	 1	    1.00000	    0.00000	 115.0	 1	    1.06000	    0.94000;
	100	 1	 0.0	 0.0	 0.0	 0.0	 1	    1.00000	    0.00000	 115.0	 1	    1.06000	    0.94000;
	102	 1	 77.8	 0.0	 0.0	 0.0	 1	    1.00000	    0.00000	 115.0	 1	    1.06000	    0.94000;
	103	 1	 32.0	 0.0	 0.0	 0.0	 1	    1.00000	    0.00000	 115.0	 1	    1.06000	    0.94000;
	104	 1	 8.6	 0.0	 0.0	 0.0	 1	    1.00000	    0.00000	 115.0	 1	    1.06000	    0.94000;
	105	 1	 49.6	 0.0	 0.0	 0.0	 1	    1.00000	    0.00000	 115.0	 1	    1.06000	    0.94000;
	107	 1	 4.6	 0.0	 0.0	 0.0	 1	    1.00000	    0.00000	 115.0	 1	    1.06000	    0.94000;
	108	 2	 112.1	 0.0	 0.0	 0.0	 1	    1.00000	    0.00000	 115.0	 1	    1.06000	    0.94000;
	109	 1	 30.7	 0.0	 0.0	 0.0	 1	    1.00000	    0.00000	 115.0	 1	    1.06000	    0.94000;
	110	 1	 63.0	 0.0	 0.0	 0.0	 1	    1.00000	    0.00000	 115.0	 1	    1.06000	    0.94000;
	112	 1	 19.6	 0.0	 0.0	 0.0	 1	    1.00000	    0.00000	 115.0	 1	    1.06000	    0.94000;
	113	 1	 26.2	 0.0	 0.0	 0.0	 1	    1.00000	    0.00000	 115.0	 1	    1.06000	    0.94000;
	114	 1	 18.2	 0.0	 0.0	 0.0	 1	    1.00000	    0.00000	 115.0	 1	    1.06000	    0.94000;
	115	 1	 0.0	 0.0	 0.0	 0.0	 1	    1.00000	    0.00000	 115.0	 2	    1.06000	    0.94000;
	116	 1	 0.0	 0.0	 0.0	 0.0	 1	    1.00000	    0.00000	 115.0	 2	    1.06000	    0.94000;
	117	 1	 0.0	 0.0	 0.0	 325.0	 1	    1.00000	    0.00000	 115.0	 2	    1.06000	    0.94000;
	118	 1	 14.1	 650.0	 0.0	 0.0	 1	    1.00000	    0.00000	 115.0	 2	    1.06000	    0.94000;
	119	 2	 0.0	 0.0	 0.0	 0.0	 1	    1.00000	    0.00000	 115.0	 2	    1.06000	    0.94000;
	120	 1	 777.0	 215.0	 0.0	 55.0	 1	    1.00000	    0.00000	 115.0	 2	    1.06000	    0.94000;
	121	 1	 535.0	 55.0	 0.0	 0.0	 1	    1.00000	    0.00000	 115.0	 2	    1.06000	    0.94000;
	122	 1	 229.1	 11.8	 0.0	 0.0	 1	    1.00000	    0.00000	 115.0	 2	    1.06000	    0.94000;
	123	 1	 78.0	 1.4	 0.0	 0.0	 1	    1.00000	    0.00000	 115.0	 2	    1.06000	    0.94000;
	124	 2	 276.4	 59.3	 0.0	 0.0	 1	    1.00000	    0.00000	 115.0	 2	    1.06000	    0.94000;
	125	 2	 514.8	 82.7	 0.0	 0.0	 1	    1.00000	    0.00000	 115.0	 2	    1.06000	    0.94000;
	126	 1	 57.9	 5.1	 0.0	 0.0	 1	    1.00000	    0.00000	 115.0	 2	    1.06000	    0.94000;
	127	 1	 380.8	 37.0	 0.0	 0.0	 1	    1.00000	    0.00000	 230.0	 2	    1.06000	    0.94000;
	128	 1	 0.0	 0.0	 0.0	 0.0	 1	    1.00000	    0.00000	 230.0	 2	    1.06000	    0.94000;
	129	 1	 0.0	 0.0	 0.0	 0.0	 1	    1.00000	    0.00000	 230.0	 2	    1.06000	    0.94000;
	130	 1	 0.0	 0.0	 0.0	 0.0	 1	    1.00000	    0.00000	 230.0	 2	    1.06000	    0.94000;
	131	 1	 0.0	 0.0	 0.0	 0.0	 1	    1.00000	    0.00000	 230.0	 2	    1.06000	    0.94000;
	132	 1	 0.0	 0.0	 0.0	 0.0	 1	    1.00000	    0.00000	 230.0	 2	    1.06000	    0.94000;
	133	 1	 0.0	 0.0	 0.0	 0.0	 1	    1.00000	    0.00000	 230.0	 2	    1.06000	    0.94000;
	134	 1	 0.0	 0.0	 0.0	 0.0	 1	    1.00000	    0.00000	 230.0	 2	    1.06000	    0.94000;
	135	 1	 169.2	 41.6	 0.0	 0.0	 1	    1.00000	    0.00000	 230.0	 2	    1.06000	    0.94000;
	136	 1	 55.2	 18.2	 0.0	 0.0	 1	    1.00000	    0.00000	 230.0	 2	    1.06000	    0.94000;
	137	 1	 273.6	 99.8	 0.0	 0.0	 1	    1.00000	    0.00000	 230.0	 2	    1.06000	    0.94000;
	138	 2	 1019.2	 135.2	 0.0	 0.0	 1	    1.00000	    0.00000	 230.0	 2	    1.06000	    0.94000;
	139	 1	 595.0	 83.3	 0.0	 0.0	 1	    1.00000	    0.00000	 115.0	 2	    1.06000	    0.94000;
	140	 1	 387.7	 114.7	 0.0	 0.0	 1	    1.00000	    0.00000	 230.0	 2	    1.06000	    0.94000;
	141	 2	 145.0	 58.0	 0.0	 0.0	 1	    1.00000	    0.00000	 230.0	 2	    1.06000	    0.94000;
	142	 1	 56.5	 24.5	 0.0	 0.0	 1	    1.00000	    0.00000	 230.0	 2	    1.06000	    0.94000;
	143	 2	 89.5	 35.5	 0.0	 0.0	 1	    1.00000	    0.00000	 230.0	 2	    1.06000	    0.94000;
	144	 1	 0.0	 0.0	 0.0	 0.0	 1	    1.00000	    0.00000	 230.0	 2	    1.06000	    0.94000;
	145	 1	 24.0	 14.0	 0.0	 0.0	 1	    1.00000	    0.00000	 230.0	 2	    1.06000	    0.94000;
	146	 2	 0.0	 0.0	 0.0	 0.0	 1	    1.00000	    0.00000	 230.0	 2	    1.06000	    0.94000;
	147	 2	 0.0	 0.0	 0.0	 0.0	 1	    1.00000	    0.00000	 230.0	 2	    1.06000	    0.94000;
	148	 1	 63.0	 25.0	 0.0	 0.0	 1	    1.00000	    0.00000	 230.0	 2	    1.06000	    0.94000;
	149	 2	 0.0	 0.0	 0.0	 0.0	 1	    1.00000	    0.00000	 230.0	 2	    1.06000	    0.94000;
	150	 1	 0.0	 0.0	 0.0	 0.0	 1	    1.00000	    0.00000	 230.0	 2	    1.06000	    0.94000;
	151	 1	 0.0	 0.0	 0.0	 0.0	 1	    1.00000	    0.00000	 230.0	 2	    1.06000	    0.94000;
	152	 2	 17.0	 9.0	 0.0	 0.0	 1	    1.00000	    0.00000	 230.0	 2	    1.06000	    0.94000;
	153	 2	 0.0	 0.0	 0.0	 0.0	 1	    1.00000	    0.00000	 230.0	 2	    1.06000	    0.94000;
	154	 1	 70.0	 5.0	 0.0	 34.5	 1	    1.00000	    0.00000	 115.0	 2	    1.06000	    0.94000;
	155	 1	 200.0	 50.0	 0.0	 0.0	 1	    1.00000	    0.00000	 230.0	 2	    1.06000	    0.94000;
	156	 2	 75.0	 50.0	 0.0	 0.0	 1	    1.00000	    0.00000	 115.0	 2	    1.06000	    0.94000;
	157	 1	 123.5	 -24.3	 0.0	 0.0	 1	    1.00000	    0.00000	 230.0	 2	    1.06000	    0.94000;
	158	 1	 0.0	 0.0	 0.0	 0.0	 1	    1.00000	    0.00000	 230.0	 2	    1.06000	    0.94000;
	159	 1	 33.0	 16.5	 0.0	 0.0	 1	    1.00000	    0.00000	 230.0	 2	    1.06000	    0.94000;
	160	 1	 0.0	 0.0	 0.0	 0.0	 1	    1.00000	    0.00000	 230.0	 2	    1.06000	    0.94000;
	161	 1	 35.0	 15.0	 0.0	 0.0	 1	    1.00000	    0.00000	 230.0	 2	    1.06000	    0.94000;
	162	 1	 85.0	 24.0	 0.0	 0.0	 1	    1.00000	    0.00000	 230.0	 2	    1.06000	    0.94000;
	163	 1	 0.0	 0.4	 0.0	 0.0	 1	    1.00000	    0.00000	 230.0	 2	    1.06000	    0.94000;
	164	 1	 0.0	 0.0	 0.0	 -212.0	 1	    1.00000	    0.00000	 230.0	 2	    1.06000	    0.94000;
	165	 1	 0.0	 0.0	 0.0	 0.0	 1	    1.00000	    0.00000	 230.0	 2	    1.06000	    0.94000;
	166	 1	 0.0	 0.0	 0.0	 -103.0	 1	    1.00000	    0.00000	 230.0	 2	    1.06000	    0.94000;
	167	 1	 299.9	 95.7	 0.0	 0.0	 1	    1.00000	    0.00000	 230.0	 2	    1.06000	    0.94000;
	168	 1	 0.0	 0.0	 0.0	 0.0	 1	    1.00000	    0.00000	 230.0	 2	    1.06000	    0.94000;
	169	 1	 0.0	 0.0	 0.0	 0.0	 1	    1.00000	    0.00000	 230.0	 2	    1.06000	    0.94000;
	170	 2	 481.8	 205.0	 0.0	 0.0	 1	    1.00000	    0.00000	 115.0	 2	    1.06000	    0.94000;
	171	 2	 763.6	 291.1	 0.0	 0.0	 1	    1.00000	    0.00000	 115.0	 2	    1.06000	    0.94000;
	172	 1	 26.5	 0.0	 0.0	 0.0	 1	    1.00000	    0.00000	 115.0	 2	    1.06000	    0.94000;
	173	 1	 163.5	 43.0	 0.0	 53.0	 1	    1.00000	    0.00000	 115.0	 2	    1.06000	    0.94000;
	174	 1	 0.0	 0.0	 0.0	 0.0	 1	    1.00000	    0.00000	 115.0	 2	    1.06000	    0.94000;
	175	 1	 176.0	 83.0	 0.0	 0.0	 1	    1.00000	    0.00000	 115.0	 2	    1.06000	    0.94000;
	176	 2	 5.0	 4.0	 0.0	 0.0	 1	    1.00000	    0.00000	 115.0	 2	    1.06000	    0.94000;
	177	 2	 28.0	 12.0	 0.0	 0.0	 1	    1.00000	    0.00000	 115.0	 2	    1.06000	    0.94000;
	178	 1	 427.4	 173.6	 0.0	 0.0	 1	    1.00000	    0.00000	 115.0	 2	    1.06000	    0.94000;
	179	 1	 74.0	 29.0	 0.0	 45.0	 1	    1.00000	    0.00000	 115.0	 2	    1.06000	    0.94000;
	180	 1	 69.5	 49.3	 0.0	 0.0	 1	    1.00000	    0.00000	 115.0	 2	    1.06000	    0.94000;
	181	 1	 73.4	 0.0	 0.0	 0.0	 1	    1.00000	    0.00000	 230.0	 2	    1.06000	    0.94000;
	182	 1	 240.7	 89.0	 0.0	 0.0	 1	    1.00000	    0.00000	 230.0	 2	    1.06000	    0.94000;
	183	 1	 40.0	 4.0	 0.0	 0.0	 1	    1.00000	    0.00000	 115.0	 2	    1.06000	    0.94000;
	184	 1	 136.8	 16.6	 0.0	 0.0	 1	    1.00000	    0.00000	 230.0	 2	    1.06000	    0.94000;
	185	 2	 0.0	 0.0	 0.0	 0.0	 1	    1.00000	    0.00000	 230.0	 2	    1.06000	    0.94000;
	186	 2	 59.8	 24.3	 0.0	 0.0	 1	    1.00000	    0.00000	 230.0	 2	    1.06000	    0.94000;
	187	 2	 59.8	 24.3	 0.0	 0.0	 1	    1.00000	    0.00000	 230.0	 2	    1.06000	    0.94000;
	188	 1	 182.6	 43.6	 0.0	 0.0	 1	    1.00000	    0.00000	 230.0	 2	    1.06000	    0.94000;
	189	 1	 7.0	 2.0	 0.0	 0.0	 1	    1.00000	    0.00000	 66.0	 3	    1.06000	    0.94000;
	190	 2	 0.0	 0.0	 0.0	 -150.0	 1	    1.00000	    0.00000	 345.0	 3	    1.06000	    0.94000;
	191	 2	 489.0	 53.0	 0.0	 0.0	 1	    1.00000	    0.00000	 230.0	 3	    1.06000	    0.94000;
	192	 1	 800.0	 72.0	 0.0	 0.0	 1	    1.00000	    0.00000	 230.0	 3	    1.06000	    0.94000;
	193	 1	 0.0	 0.0	 0.0	 0.0	 1	    1.00000	    0.00000	 66.0	 3	    1.06000	    0.94000;
	194	 1	 0.0	 0.0	 0.0	 0.0	 1	    1.00000	    0.00000	 345.0	 3	    1.06000	    0.94000;
	195	 1	 0.0	 0.0	 0.0	 0.0	 1	    1.00000	    0.00000	 345.0	 3	    1.06000	    0.94000;
	196	 1	 10.0	 3.0	 0.0	 0.0	 1	    1.00000	    0.00000	 115.0	 3	    1.06000	    0.94000;
	197	 1	 43.0	 14.0	 0.0	 0.0	 1	    1.00000	    0.00000	 115.0	 3	    1.06000	    0.94000;
	198	 2	 64.0	 21.0	 0.0	 0.0	 1	    1.00000	    0.00000	 115.0	 3	    1.06000	    0.94000;
	199	 1	 35.0	 12.0	 0.0	 0.0	 1	    1.00000	    0.00000	 115.0	 3	    1.06000	    0.94000;
	200	 1	 27.0	 12.0	 0.0	 0.0	 1	    1.00000	    0.00000	 115.0	 3	    1.06000	    0.94000;
	201	 1	 41.0	 14.0	 0.0	 0.0	 1	    1.00000	    0.00000	 66.0	 1	    1.06000	    0.94000;
	202	 1	 38.0	 13.0	 0.0	 0.0	 1	    1.00000	    0.00000	 66.0	 3	    1.06000	    0.94000;
	203	 1	 42.0	 14.0	 0.0	 0.0	 1	    1.00000	    0.00000	 115.0	 3	    1.06000	    0.94000;
	204	 1	 72.0	 24.0	 0.0	 0.0	 1	    1.00000	    0.00000	 66.0	 3	    1.06000	    0.94000;
	205	 1	 0.0	 -5.0	 0.0	 0.0	 1	    1.00000	    0.00000	 66.0	 3	    1.06000	    0.94000;
	206	 1	 12.0	 2.0	 0.0	 0.0	 1	    1.00000	    0.00000	 66.0	 3	    1.06000	    0.94000;
	207	 1	 -21.0	 -14.2	 0.0	 0.0	 1	    1.00000	    0.00000	 66.0	 1	    1.06000	    0.94000;
	208	 1	 7.0	 2.0	 0.0	 0.0	 1	    1.00000	    0.00000	 66.0	 3	    1.06000	    0.94000;
	209	 1	 38.0	 13.0	 0.0	 0.0	 1	    1.00000	    0.00000	 66.0	 3	    1.06000	    0.94000;
	210	 1	 0.0	 0.0	 0.0	 0.0	 1	    1.00000	    0.00000	 115.0	 3	    1.06000	    0.94000;
	211	 1	 96.0	 7.0	 0.0	 0.0	 1	    1.00000	    0.00000	 115.0	 3	    1.06000	    0.94000;
	212	 1	 0.0	 0.0	 0.0	 0.0	 1	    1.00000	    0.00000	 138.0	 3	    1.06000	    0.94000;
	213	 2	 0.0	 0.0	 0.0	 0.0	 1	    1.00000	    0.00000	 16.5	 3	    1.06000	    0.94000;
	214	 1	 22.0	 16.0	 0.0	 0.0	 1	    1.00000	    0.00000	 138.0	 3	    1.06000	    0.94000;
	215	 1	 47.0	 26.0	 0.0	 0.0	 1	    1.00000	    0.00000	 138.0	 3	    1.06000	    0.94000;
	216	 1	 176.0	 105.0	 0.0	 0.0	 1	    1.00000	    0.00000	 138.0	 3	    1.06000	    0.94000;
	217	 1	 100.0	 75.0	 0.0	 0.0	 1	    1.00000	    0.00000	 138.0	 3	    1.06000	    0.94000;
	218	 1	 131.0	 96.0	 0.0	 0.0	 1	    1.00000	    0.00000	 138.0	 3	    1.06000	    0.94000;
	219	 1	 0.0	 0.0	 0.0	 0.0	 1	    1.00000	    0.00000	 345.0	 3	    1.06000	    0.94000;
	220	 2	 285.0	 100.0	 0.0	 0.0	 1	    1.00000	    0.00000	 138.0	 3	    1.06000	    0.94000;
	221	 2	 171.0	 70.0	 0.0	 0.0	 1	    1.00000	    0.00000	 138.0	 3	    1.06000	    0.94000;
...
];

%% generator data
%	bus	Pg	Qg	Qmax	Qmin	Vg	mBase	status	Pmax	Pmin
mpc.gen = [
	8	 0.0	 0.0	 10.0	 -10.0	 1.0	 100.0	 1	 0	 0.0; 0 % SYNC
	10	 0.0	 0.0	 20.0	 -20.0	 1.0	 100.0	 1	 0	 0.0; 0 % SYNC
	20	 0.0	 0.0	 20.0	 -20.0	 1.0	 100.0	 1	 0	 0.0; 0 % SYNC
	63	 0.0	 0.0	 25.0	 -25.0	 1.0	 100.0	 1	 0	 0.0; 0 % SYNC
	76	 0.0	 23.5	 35.0	 12.0	 1.0	 100.0	 1	 0	 0.0; 0 % SYNC
	84	 724.0	 0.0	 240.0	 -240.0	 1.0	 100.0	 1	 1448	 0.0; 0 % COW
	91	 92.5	 41.0	 93.0	 -11.0	 1.0	 100.0	 1	 185	 0.0; 0 % NG
	92	 180.0	 0.0	 153.0	 -153.0	 1.0	 100.0	 1	 360	 0.0; 0 % NG
	98	 46.5	 8.5	 47.0	 -30.0	 1.0	 100.0	 1	 93	 0.0; 0 % NG
	108	 98.5	 26.5	 77.0	 -24.0	 1.0	 100.0	 1	 197	 0.0; 0 % NG
	119	 1020.5	 260.5	 1021.0	 -500.0	 1.0	 100.0	 1	 2041	 0.0; 0 % NUC
	124	 160.5	 30.0	 120.0	 -60.0	 1.0	 100.0	 1	 321	 0.0; 0 % NG
	125	 0.0	 87.5	 200.0	 -25.0	 1.0	 100.0	 1	 0	 0.0; 0 % SYNC
	138	 0.0	 112.5	 350.0	 -125.0	 1.0	 100.0	 1	 0	 0.0; 0 % SYNC
	141	 148.5	 12.5	 75.0	 -50.0	 1.0	 100.0	 1	 297	 0.0; 0 % NG
	143	 400.0	 100.0	 300.0	 -100.0	 1.0	 100.0	 1	 800	 0.0; 0 % COW
	146	 45.5	 10.0	 35.0	 -15.0	 1.0	 100.0	 1	 91	 0.0; 0 % COW
	147	 160.0	 25.0	 100.0	 -50.0	 1.0	 100.0	 1	 320	 0.0; 0 % NG
	149	 138.5	 12.5	 50.0	 -25.0	 1.0	 100.0	 1	 277	 0.0; 0 % NG
	152	 303.0	 62.5	 175.0	 -50.0	 1.0	 100.0	 1	 606	 0.0; 0 % COW
	153	 121.0	 20.0	 90.0	 -50.0	 1.0	 100.0	 1	 242	 0.0; 0 % NG
	156	 0.0	 2.5	 15.0	 -10.0	 1.0	 100.0	 1	 0	 0.0; 0 % SYNC
	170	 165.0	 25.0	 90.0	 -40.0	 1.0	 100.0	 1	 330	 0.0; 0 % NG
	171	 0.0	 50.0	 150.0	 -50.0	 1.0	 100.0	 1	 0	 0.0; 0 % SYNC
	176	 139.0	 22.5	 90.0	 -45.0	 1.0	 100.0	 1	 278	 0.0; 0 % NG
	177	 62.5	 10.0	 35.0	 -15.0	 1.0	 100.0	 1	 125	 0.0; 0 % NG
	185	 125.0	 15.0	 80.0	 -50.0	 1.0	 100.0	 1	 250	 0.0; 0 % NG
	186	 1232.5	 150.0	 400.0	 -100.0	 1.0	 100.0	 1	 2465	 0.0; 0 % COW
	187	 812.0	 150.0	 400.0	 -100.0	 1.0	 100.0	 1	 1624	 0.0; 0 % COW
	190	 257.5	 0.0	 258.0	 -258.0	 1.0	 100.0	 1	 515	 0.0; 0 % NG
	191	 1070.0	 0.0	 1000.0	 -1000.0	 1.0	 100.0	 1	 2140	 0.0; 0 % COW
	198	 215.0	 0.0	 215.0	 -215.0	 1.0	 100.0	 1	 430	 0.0; 0 % NG
	213	 144.0	 0.0	 144.0	 -144.0	 1.0	 100.0	 1	 288	 0.0; 0 % NG
	220	 230.0	 0.0	 60.0	 -60.0	 1.0	 100.0	 1	 460	 0.0; 0 % NG
	221	 277.0	 0.0	 277.0	 -277.0	 1.0	 100.0	 1	 554	 0.0; 0 % NG
	222	 261.5	 0.0	 262.0	 -262.0	 1.0	 100.0	 1	 523	 0.0; 0 % NG
	227	 218.0	 0.0	 218.0	 -218.0	 1.0	 100.0	 1	 436	 0.0; 0 % NG
	230	 229.0	 0.0	 229.0	 -229.0	 1.0	 100.0	 1	 458	 0.0; 0 % NG
	233	 170.5	 0.0	 171.0	 -171.0	 1.0	 100.0	 1	 341	 0.0; 0 % NG
	236	 440.5	 0.0	 300.0	 -300.0	 1.0	 100.0	 1	 881	 0.0; 0 % COW
	238	 133.5	 0.0	 134.0	 -134.0	 1.0	 100.0	 1	 267	 0.0; 0 % NG
	239	 310.5	 0.0	 311.0	 -311.0	 1.0	 100.0	 1	 621	 0.0; 0 % NG
	241	 563.5	 0.0	 564.0	 -564.0	 1.0	 100.0	 1	 1127	 0.0; 0 % COW
	242	 106.0	 70.0	 100.0	 40.0	 1.0	 100.0	 1	 212	 0.0; 0 % PEL
	243	 171.0	 60.0	 80.0	 40.0	 1.0	 100.0	 1	 342	 0.0; 0 % NG
	7001	 284.0	 0.0	 210.0	 -210.0	 1.0	 100.0	 1	 568	 0.0; 0 % NG
	7002	 335.0	 0.0	 280.0	 -280.0	 1.0	 100.0	 1	 670	 0.0; 0 % COW
	7003	 700.5	 0.0	 420.0	 -420.0	 1.0	 100.0	 1	 1401	 0.0; 0 % NUC
	7011	 334.0	 0.0	 100.0	 -100.0	 1.0	 100.0	 1	 668	 0.0; 0 % COW
	7012	 313.0	 0.0	 224.0	 -224.0	 1.0	 100.0	 1	 626	 0.0; 0 % NG
	7017	 245.0	 122.5	 245.0	 0.0	 1.0	 100.0	 1	 490	 0.0; 0 % NG
	7023	 110.0	 55.0	 110.0	 0.0	 1.0	 100.0	 1	 220	 0.0; 0 % NG
	7024	 271.5	 0.0	 224.0	 -224.0	 1.0	 100.0	 1	 543	 0.0; 0 % NG
	7039	 290.0	 0.0	 200.0	 -200.0	 1.0	 100.0	 1	 580	 0.0; 0 % PEL
	7044	 66.0	 21.0	 42.0	 0.0	 1.0	 100.0	 1	 132	 0.0; 0 % NG
	7049	 359.0	 5.0	 10.0	 0.0	 1.0	 100.0	 1	 718	 0.0; 0 % NUC
	7055	 79.0	 12.5	 25.0	 0.0	 1.0	 100.0	 1	 158	 0.0; 0 % NG
	7057	 167.0	 0.0	 90.0	 -90.0	 1.0	 100.0	 1	 334	 0.0; 0 % NG
	7061	 878.5	 0.0	 150.0	 -150.0	 1.0	 100.0	 1	 1757	 0.0; 0 % COW
	7062	 284.0	 75.0	 150.0	 0.0	 1.0	 100.0	 1	 568	 0.0; 0 % NG
	7071	 101.5	 43.5	 87.0	 0.0	 1.0	 100.0	 1	 203	 0.0; 0 % NG
	7130	 863.0	 250.0	 600.0	 -100.0	 1.0	 100.0	 1	 1726	 0.0; 0 % COW
	7139	 1012.5	 100.0	 325.0	 -125.0	 1.0	 100.0	 1	 2025	 0.0; 0 % COW
	7166	 312.0	 50.0	 300.0	 -200.0	 1.0	 100.0	 1	 624	 0.0; 0 % NG
	9002	 0.0	 0.0	 2.0	 -2.0	 1.0	 100.0	 1	 0	 0.0; 0 % SYNC
	9051	 0.0	 0.0	 17.35	 -17.35	 1.0	 100.0	 1	 0	 0.0; 0 % SYNC
	9053	 0.0	 0.015	 12.83	 -12.8	 1.0	 100.0	 1	 0	 0.0; 0 % SYNC
	9054	 42.0	 0.0	 38.0	 -38.0	 1.0	 100.0	 1	 84	 0.0; 0 % NG
	9055	 18.5	 0.0	 6.0	 -6.0	 1.0	 100.0	 1	 37	 0.0; 0 % PEL
];

%% generator cost data
%	2	startup	shutdown	n	c(n-1)	...	c0
mpc.gencost = [
	2	 0.0	 0.0	 3	   0.000000	   0.000000	   0.000000; % SYNC
	2	 0.0	 0.0	 3	   0.000000	   0.000000	   0.000000; % SYNC
	2	 0.0	 0.0	 3	   0.000000	   0.000000	   0.000000; % SYNC
	2	 0.0	 0.0	 3	   0.000000	   0.000000	   0.000000; % SYNC
	2	 0.0	 0.0	 3	   0.000000	   0.000000	   0.000000; % SYNC
	2	 0.0	 0.0	 3	   0.000000	  22.409835	   0.000000; % COW
	2	 0.0	 0.0	 3	   0.000000	  46.100054	   0.000000; % NG
	2	 0.0	 0.0	 3	   0.000000	  54.164939	   0.000000; % NG
	2	 0.0	 0.0	 3	   0.000000	  27.238416	   0.000000; % NG
	2	 0.0	 0.0	 3	   0.000000	  38.430722	   0.000000; % NG
	2	 0.0	 0.0	 3	   0.000000	   7.698908	   0.000000; % NUC
	2	 0.0	 0.0	 3	   0.000000	  26.754128	   0.000000; % NG
	2	 0.0	 0.0	 3	   0.000000	   0.000000	   0.000000; % SYNC
	2	 0.0	 0.0	 3	   0.000000	   0.000000	   0.000000; % SYNC
	2	 0.0	 0.0	 3	   0.000000	  30.597916	   0.000000; % NG
	2	 0.0	 0.0	 3	   0.000000	  30.758666	   0.000000; % COW
	2	 0.0	 0.0	 3	   0.000000	  19.292281	   0.000000; % COW
	2	 0.0	 0.0	 3	   0.000000	  49.861855	   0.000000; % NG
	2	 0.0	 0.0	 3	   0.000000	  35.842363	   0.000000; % NG
	2	 0.0	 0.0	 3	   0.000000	  34.955965	   0.000000; % COW
	2	 0.0	 0.0	 3	   0.000000	  22.762722	   0.000000; % NG
	2	 0.0	 0.0	 3	   0.000000	   0.000000	   0.000000; % SYNC
	2	 0.0	 0.0	 3	   0.000000	  35.375974	   0.000000; % NG
	2	 0.0	 0.0	 3	   0.000000	   0.000000	   0.000000; % SYNC
	2	 0.0	 0.0	 3	   0.000000	  33.868524	   0.000000; % NG
	2	 0.0	 0.0	 3	   0.000000	  29.031265	   0.000000; % NG
	2	 0.0	 0.0	 3	   0.000000	  28.391517	   0.000000; % NG
	2	 0.0	 0.0	 3	   0.000000	   1.000203	   0.000000; % COW
	2	 0.0	 0.0	 3	   0.000000	  27.278538	   0.000000; % COW
	2	 0.0	 0.0	 3	   0.000000	  49.155710	   0.000000; % NG
	2	 0.0	 0.0	 3	   0.000000	  24.062655	   0.000000; % COW
	2	 0.0	 0.0	 3	   0.000000	  31.016664	   0.000000; % NG
	2	 0.0	 0.0	 3	   0.000000	  49.721799	   0.000000; % NG
	2	 0.0	 0.0	 3	   0.000000	  21.291665	   0.000000; % NG
	2	 0.0	 0.0	 3	   0.000000	  31.437031	   0.000000; % NG
	2	 0.0	 0.0	 3	   0.000000	  50.842869	   0.000000; % NG
	2	 0.0	 0.0	 3	   0.000000	  28.010460	   0.000000; % NG
	2	 0.0	 0.0	 3	   0.000000	  39.828572	   0.000000; % NG
	2	 0.0	 0.0	 3	   0.000000	  35.650779	   0.000000; % NG
	2	 0.0	 0.0	 3	   0.000000	  32.621266	   0.000000; % COW
	2	 0.0	 0.0	 3	   0.000000	  39.657688	   0.000000; % NG
	2	 0.0	 0.0	 3	   0.000000	  41.223312	   0.000000; % NG
	2	 0.0	 0.0	 3	   0.000000	  39.064721	   0.000000; % COW
	2	 0.0	 0.0	 3	   0.000000	 116.939409	   0.000000; % PEL
	2	 0.0	 0.0	 3	   0.000000	  34.336562	   0.000000; % NG
	2	 0.0	 0.0	 3	   0.000000	  38.274878	   0.000000; % NG
	2	 0.0	 0.0	 3	   0.000000	  23.466762	   0.000000; % COW
	2	 0.0	 0.0	 3	   0.000000	   7.509959	   0.000000; % NUC
	2	 0.0	 0.0	 3	   0.000000	  26.682965	   0.000000; % COW
	2	 0.0	 0.0	 3	   0.000000	  28.434868	   0.000000; % NG
	2	 0.0	 0.0	 3	   0.000000	  35.126651	   0.000000; % NG
	2	 0.0	 0.0	 3	   0.000000	  51.062397	   0.000000; % NG
	2	 0.0	 0.0	 3	   0.000000	  29.992015	   0.000000; % NG
	2	 0.0	 0.0	 3	   0.000000	 103.987496	   0.000000; % PEL
	2	 0.0	 0.0	 3	   0.000000	  38.825689	   0.000000; % NG
	2	 0.0	 0.0	 3	   0.000000	   6.843072	   0.000000; % NUC
	2	 0.0	 0.0	 3	   0.000000	  29.772562	   0.000000; % NG
	2	 0.0	 0.0	 3	   0.000000	  62.427103	   0.000000; % NG
	2	 0.0	 0.0	 3	   0.000000	  20.811515	   0.000000; % COW
	2	 0.0	 0.0	 3	   0.000000	  26.507890	   0.000000; % NG
	2	 0.0	 0.0	 3	   0.000000	  31.587517	   0.000000; % NG
	2	 0.0	 0.0	 3	   0.000000	  29.759924	   0.000000; % COW
	2	 0.0	 0.0	 3	   0.000000	  36.179055	   0.000000; % COW
	2	 0.0	 0.0	 3	   0.000000	  36.908367	   0.000000; % NG
	2	 0.0	 0.0	 3	   0.000000	   0.000000	   0.000000; % SYNC
	2	 0.0	 0.0	 3	   0.000000	   0.000000	   0.000000; % SYNC
	2	 0.0	 0.0	 3	   0.000000	   0.000000	   0.000000; % SYNC
	2	 0.0	 0.0	 3	   0.000000	  32.961473	   0.000000; % NG
	2	 0.0	 0.0	 3	   0.000000	  94.758209	   0.000000; % PEL
];

%% branch data
%	fbus	tbus	r	x	b	rateA	rateB	rateC	ratio	angle	status	angmin	angmax
mpc.branch = [
	37	9001	6.00E-05	0.00046	0	9900	63230	63230	1.0082	0	1	-30	 30.0;
	9001	9005	0.0008	0.00348	0	8215	8215	8215	0	0	1	-30	 30.0;
	9001	9006	0.02439	0.43682	0	68	68	68	0.9668	0	0	-30	 30.0;
	9001	9012	0.03624	0.64898	0	46	46	46	0.9796	0	1	-30	 30.0;
	9005	9051	0.01578	0.37486	0	79	79	79	1.0435	0	1	-30	 30.0;
	9005	9052	0.01578	0.37486	0	79	79	79	0.9391	0	1	-30	 30.0;
	9005	9053	0.01602	0.38046	0	78	78	78	1.0435	0	1	-30	 30.0;
	9005	9054	0	0.152	0	193	193	193	1.0435	0	1	-30	 30.0;
	9005	9055	0	0.8	0	37	37	37	1.0435	0	1	-30	 30.0;
	9006	9007	0.05558	0.24666	0	117	117	117	0	0	0	-30	 30.0;
	9006	9003	0.11118	0.49332	0	59	59	59	0	0	1	-30	 30.0;
	9006	9003	0.11118	0.49332	0	59	59	59	0	0	1	-30	 30.0;
	9012	9002	0.07622	0.43286	0	67	67	67	0	0	0	-30	 30.0;
	9012	9002	0.07622	0.43286	0	67	67	67	0	0	1	-30	 30.0;
	9002	9021	0.0537	0.07026	0	332	332	332	0	0	1	-30	 30.0;
	9021	9023	1.1068	0.95278	0	21	21	21	0	0	1	-30	 30.0;
	9021	9022	0.44364	2.8152	0	11	11	11	1	0	1	-30	 30.0;
	9002	9024	0.50748	3.2202	0	9	9	9	1	0	0	-30	 30.0;
	9023	9025	0.66688	3.944	0	8	8	8	1	0	0	-30	 30.0;
	9023	9026	0.6113	3.6152	0	8	8	8	1	0	1	-30	 30.0;
	9007	9071	0.4412	2.9668	0	10	10	10	1	0	0	-30	 30.0;
	9007	9072	0.30792	2.057	0	15	15	15	1	0	1	-30	 30.0;
	9007	9003	0.0558	0.24666	0	116	116	116	0	0	0	-30	 30.0;
	9003	9031	0.73633	4.6724	0	7	7	7	1	0	1	-30	 30.0;
	9003	9032	0.76978	4.8846	0	6	6	6	1	0	1	-30	 30.0;
	9003	9033	0.75732	4.8056	0	7	7	7	1	0	1	-30	 30.0;
	9003	9044	0.07378	0.06352	0	302	302	302	0	0	1	-30	 30.0;
	9044	9004	0.03832	0.02894	0	611	611	611	0	0	1	-30	 30.0;
	9004	9041	0.36614	2.456	0	12	12	12	1	0	0	-30	 30.0;
	9004	9042	1.0593	5.4536	0	6	6	6	1	0	1	-30	 30.0;
	9004	9043	0.1567	1.6994	0	18	18	18	1	0	1	-30	 30.0;
	9003	9034	0.13006	1.3912	0	21	21	21	1	0	1	-30	 30.0;
	9003	9035	0.54484	3.4572	0	9	9	9	1	0	1	-30	 30.0;
	9003	9036	0.15426	1.6729	0	18	18	18	1	0	1	-30	 30.0;
	9003	9037	0.3849	2.5712	0	12	12	12	1	0	1	-30	 30.0;
	9003	9038	0.4412	2.9668	0	10	10	10	1	0	1	-30	 30.0;
	9012	9121	0.23552	0.99036	0	29	29	29	0	0	1	-30	 30.0;
	9053	9533	0	0.75	0	40	40	40	0.9583	0	1	-30	 30.0;
	1	5	0.001	0.006	0	4823	4823	4823	0	0	0	-30	 30.0;
	2	6	0.001	0.009	0	3240	3240	3240	0	0	1	-30	 30.0;
	2	8	0.006	0.027	0.054	1061	1061	1061	0	0	0	-30	 30.0;
	3	7	0	0.003	0	9778	9778	9778	0	0	1	-30	 30.0;
	3	19	0.008	0.069	0.139	423	423	423	0	0	1	-30	 30.0;
	3	150	0.001	0.007	0	4149	4149	4149	0	0	1	-30	 30.0;
	4	16	0.002	0.019	1.127	1536	1536	1536	0	0	1	-30	 30.0;
	5	9	0.006	0.029	0.018	991	991	991	0	0	1	-30	 30.0;
	7	12	0.001	0.009	0.07	3240	3240	3240	0	0	1	-30	 30.0;
	7	131	0.001	0.007	0.014	4149	4149	4149	0	0	1	-30	 30.0;
	8	11	0.013	0.0595	0.033	482	482	482	0	0	1	-30	 30.0;
	8	14	0.013	0.042	0.081	668	668	668	0	0	1	-30	 30.0;
	9	11	0.006	0.027	0.013	1061	1061	1061	0	0	1	-30	 30.0;
	11	13	0.008	0.034	0.018	840	840	840	0	0	1	-30	 30.0;
	12	21	0.002	0.015	0.118	1939	1939	1939	0	0	1	-30	 30.0;
	13	20	0.006	0.034	0.016	850	850	850	0	0	1	-30	 30.0;
	14	15	0.014	0.042	0.097	663	663	663	0	0	0	-30	 30.0;
	15	37	0.065	0.248	0.121	115	115	115	0	0	0	-30	 30.0;
	15	89	0.099	0.248	0.035	110	110	110	0	0	0	-30	 30.0;
	15	90	0.096	0.363	0.048	79	79	79	0	0	0	-30	 30.0;
	16	42	0.002	0.022	1.28	1328	1328	1328	0	0	1	-30	 30.0;
	19	21	0.002	0.018	0.036	1620	1620	1620	0	0	1	-30	 30.0;
	19	87	0.013	0.08	0.151	362	362	362	0	0	1	-30	 30.0;
	20	22	0.016	0.033	0.015	800	800	800	0	0	1	-30	 30.0;
	20	27	0.069	0.186	0.098	148	148	148	0	0	0	-30	 30.0;
	21	24	0.004	0.034	0.28	857	857	857	0	0	0	-30	 30.0;
	22	23	0.052	0.111	0.05	240	240	240	0	0	1	-30	 30.0;
	23	25	0.019	0.039	0.018	677	677	677	0	0	1	-30	 30.0;
	24	319	0.007	0.068	0.134	430	430	430	0	0	1	-30	 30.0;
	25	26	0.036	0.071	0.034	369	369	369	0	0	1	-30	 30.0;
	26	27	0.045	0.12	0.065	229	229	229	0	0	1	-30	 30.0;
	26	320	0.043	0.13	0.014	215	215	215	0	0	1	-30	 30.0;
	33	34	0	0.063	0	466	466	466	1	0	0	-30	 30.0;
	33	38	0.0025	0.012	0.013	2393	2393	2393	0	0	0	-30	 30.0;
	33	40	0.006	0.029	0.02	991	991	991	0	0	1	-30	 30.0;
	33	41	0.007	0.043	0.026	674	674	674	0	0	0	-30	 30.0;
	34	42	0.001	0.008	0.042	3639	3639	3639	0	0	1	-30	 30.0;
	35	72	0.012	0.06	0.008	480	480	480	0	0	1	-30	 30.0;
	35	76	0.006	0.014	0.002	1926	1926	1926	0	0	1	-30	 30.0;
	35	77	0.01	0.029	0.003	957	957	957	0	0	0	-30	 30.0;
	36	88	0.004	0.027	0.043	1075	1075	1075	0	0	0	-30	 30.0;
	37	38	0.008	0.047	0.008	616	616	616	0	0	1	-30	 30.0;
	37	40	0.022	0.064	0.007	434	434	434	0	0	1	-30	 30.0;
	37	41	0.01	0.036	0.02	786	786	786	0	0	0	-30	 30.0;
	37	49	0.017	0.081	0.048	355	355	355	0	0	0	-30	 30.0;
	37	89	0.102	0.254	0.033	108	108	108	0	0	0	-30	 30.0;
	37	90	0.047	0.127	0.016	217	217	217	0	0	1	-30	 30.0;
	38	41	0.008	0.037	0.02	775	775	775	0	0	1	-30	 30.0;
	38	43	0.032	0.087	0.04	317	317	317	0	0	1	-30	 30.0;
	39	42	0.0006	0.0064	0.404	4564	4564	4564	0	0	1	-30	 30.0;
	40	48	0.026	0.154	0.022	188	188	188	0	0	1	-30	 30.0;
	41	42	0	0.029	0	1012	1012	1012	1	0	1	-30	 30.0;
	41	49	0.065	0.191	0.02	146	146	146	0	0	1	-30	 30.0;
	41	51	0.031	0.089	0.036	312	312	312	0	0	1	-30	 30.0;
	42	46	0.002	0.014	0.806	2075	2075	2075	0	0	1	-30	 30.0;
	43	44	0.026	0.072	0.035	384	384	384	0	0	0	-30	 30.0;
	43	48	0.095	0.262	0.032	106	106	106	0	0	1	-30	 30.0;
	43	53	0.013	0.039	0.016	714	714	714	0	0	1	-30	 30.0;
	44	47	0.027	0.084	0.039	333	333	333	0	0	1	-30	 30.0;
	44	54	0.028	0.084	0.037	332	332	332	0	0	1	-30	 30.0;
	45	60	0.007	0.041	0.312	706	706	706	0	0	1	-30	 30.0;
	45	74	0.009	0.054	0.411	536	536	536	0	0	0	-30	 30.0;
	46	81	0.005	0.042	0.69	694	694	694	0	0	1	-30	 30.0;
	47	73	0.052	0.145	0.073	191	191	191	0	0	0	-30	 30.0;
	47	113	0.043	0.118	0.013	234	234	234	0	0	0	-30	 30.0;
	48	107	0.025	0.062	0.007	439	439	439	0	0	1	-30	 30.0;
	49	51	0.031	0.094	0.043	297	297	297	0	0	1	-30	 30.0;
	51	52	0.037	0.109	0.049	255	255	255	0	0	0	-30	 30.0;
	52	55	0.027	0.08	0.036	348	348	348	0	0	0	-30	 30.0;
	53	54	0.025	0.073	0.035	381	381	381	0	0	1	-30	 30.0;
	54	55	0.035	0.103	0.047	270	270	270	0	0	1	-30	 30.0;
	55	57	0.065	0.169	0.082	162	162	162	0	0	1	-30	 30.0;
	57	58	0.046	0.08	0.036	318	318	318	0	0	1	-30	 30.0;
	57	63	0.159	0.537	0.071	53	53	53	0	0	1	-30	 30.0;
	58	59	0.009	0.026	0.005	1067	1067	1067	0	0	1	-30	 30.0;
	59	61	0.002	0.013	0.015	2231	2231	2231	0	0	1	-30	 30.0;
	60	62	0.009	0.065	0.485	447	447	447	0	0	0	-30	 30.0;
	62	64	0.016	0.105	0.203	277	277	277	0	0	1	-30	 30.0;
	62	144	0.001	0.007	0.013	4149	4149	4149	0	0	0	-30	 30.0;
	63	526	0.0265	0.172	0.026	169	169	169	0	0	1	-30	 30.0;
	69	211	0.051	0.232	0.028	124	124	124	0	0	1	-30	 30.0;
	69	79	0.051	0.157	0.023	178	178	178	0	0	1	-30	 30.0;
	70	71	0.032	0.1	0.062	280	280	280	0	0	1	-30	 30.0;
	70	528	0.02	0.1234	0.028	235	235	235	0	0	0	-30	 30.0;
	71	72	0.036	0.131	0.068	216	216	216	0	0	1	-30	 30.0;
	71	73	0.034	0.099	0.047	281	281	281	0	0	0	-30	 30.0;
	72	77	0.018	0.087	0.011	331	331	331	0	0	1	-30	 30.0;
	72	531	0.0256	0.193	0	151	151	151	0	0	1	-30	 30.0;
	73	76	0.021	0.057	0.03	483	483	483	0	0	1	-30	 30.0;
	73	79	0.018	0.052	0.018	534	534	534	0	0	0	-30	 30.0;
	74	88	0.004	0.027	0.05	1075	1075	1075	0	0	1	-30	 30.0;
	74	562	0.0286	0.2013	0.379	145	145	145	0	0	1	-30	 30.0;
	76	77	0.016	0.043	0.004	640	640	640	0	0	1	-30	 30.0;
	77	78	0.001	0.006	0.007	4823	4823	4823	0	0	1	-30	 30.0;
	77	80	0.014	0.07	0.038	411	411	411	0	0	0	-30	 30.0;
	77	552	0.0891	0.2676	0.029	104	104	104	0	0	0	-30	 30.0;
	77	609	0.0782	0.2127	0.022	130	130	130	0	0	1	-30	 30.0;
	78	79	0.006	0.022	0.011	1287	1287	1287	0	0	0	-30	 30.0;
	78	84	0	0.036	0	815	815	815	0	0	1	-30	 30.0;
	79	211	0.099	0.375	0.051	76	76	76	0	0	0	-30	 30.0;
	80	211	0.022	0.107	0.058	269	269	269	0	0	0	-30	 30.0;
	81	194	0.0035	0.033	0.53	884	884	884	0	0	1	-30	 30.0;
	81	195	0.0035	0.033	0.53	884	884	884	0	0	1	-30	 30.0;
	85	86	0.008	0.064	0.128	455	455	455	0	0	1	-30	 30.0;
	86	87	0.012	0.093	0.183	313	313	313	0	0	1	-30	 30.0;
	86	323	0.006	0.048	0.092	607	607	607	0	0	1	-30	 30.0;
	89	91	0.047	0.119	0.014	230	230	230	0	0	1	-30	 30.0;
	90	92	0.032	0.174	0.024	166	166	166	0	0	1	-30	 30.0;
	91	94	0.1	0.253	0.031	108	108	108	0	0	0	-30	 30.0;
	91	97	0.022	0.077	0.039	367	367	367	0	0	1	-30	 30.0;
	92	103	0.019	0.144	0.017	202	202	202	0	0	1	-30	 30.0;
	92	105	0.017	0.092	0.012	314	314	314	0	0	1	-30	 30.0;
	94	97	0.278	0.427	0.043	58	58	58	0	0	1	-30	 30.0;
	97	100	0.022	0.053	0.007	512	512	512	0	0	1	-30	 30.0;
	97	102	0.038	0.092	0.012	295	295	295	0	0	1	-30	 30.0;
	97	103	0.048	0.122	0.015	224	224	224	0	0	0	-30	 30.0;
	98	100	0.024	0.064	0.007	430	430	430	0	0	1	-30	 30.0;
	98	102	0.034	0.121	0.015	234	234	234	0	0	1	-30	 30.0;
	99	107	0.053	0.135	0.017	203	203	203	0	0	1	-30	 30.0;
	99	108	0.002	0.004	0.002	6559	6559	6559	0	0	1	-30	 30.0;
	99	109	0.045	0.354	0.044	83	83	83	0	0	1	-30	 30.0;
	99	110	0.05	0.174	0.022	163	163	163	0	0	0	-30	 30.0;
	100	102	0.016	0.038	0.004	712	712	712	0	0	0	-30	 30.0;
	102	104	0.043	0.064	0.027	381	381	381	0	0	1	-30	 30.0;
	103	105	0.019	0.062	0.008	453	453	453	0	0	1	-30	 30.0;
	104	108	0.076	0.13	0.044	195	195	195	0	0	1	-30	 30.0;
	104	322	0.044	0.124	0.015	223	223	223	0	0	1	-30	 30.0;
	105	107	0.012	0.088	0.011	331	331	331	0	0	0	-30	 30.0;
	105	110	0.157	0.4	0.047	69	69	69	0	0	1	-30	 30.0;
	108	324	0.074	0.208	0.026	133	133	133	0	0	1	-30	 30.0;
	109	110	0.07	0.184	0.021	149	149	149	0	0	1	-30	 30.0;
	109	113	0.1	0.274	0.031	101	101	101	0	0	1	-30	 30.0;
	109	114	0.109	0.393	0.036	72	72	72	0	0	1	-30	 30.0;
	110	112	0.142	0.404	0.05	69	69	69	0	0	1	-30	 30.0;
	112	114	0.017	0.042	0.006	648	648	648	0	0	1	-30	 30.0;
	115	122	0.0036	0.0199	0.004	1451	1451	1451	0	0	1	-30	 30.0;
	116	120	0.002	0.1049	0.001	280	280	280	0	0	0	-30	 30.0;
	117	118	0.0001	0.0018	0.017	9900	16271	16271	0	0	1	-30	 30.0;
	118	119	0	0.0271	0	1083	1083	1083	0	0	1	-30	 30.0;
	118	1201	0	0.6163	0	48	48	48	0	0	1	-30	 30.0;
	1201	120	0	-0.3697	0	80	80	80	0	0	1	-30	 30.0;
	118	121	0.0022	0.2915	0	101	101	101	0	0	0	-30	 30.0;
	119	120	0	0.0339	0	866	866	866	0	0	1	-30	 30.0;
	119	121	0	0.0582	0	504	504	504	0	0	1	-30	 30.0;
	122	123	0.0808	0.2344	0.029	119	119	119	0	0	1	-30	 30.0;
	122	125	0.0965	0.3669	0.054	78	78	78	0	0	1	-30	 30.0;
	123	124	0.036	0.1076	0.117	259	259	259	0	0	1	-30	 30.0;
	123	125	0.0476	0.1414	0.149	197	197	197	0	0	1	-30	 30.0;
	125	126	0.0006	0.0197	0	1489	1489	1489	0	0	1	-30	 30.0;
	126	127	0.0059	0.0405	0.25	717	717	717	1	0	1	-30	 30.0;
	126	129	0.0115	0.1106	0.185	264	264	264	1	0	1	-30	 30.0;
	126	132	0.0198	0.1688	0.321	173	173	173	1	0	1	-30	 30.0;
	126	157	0.005	0.05	0.33	584	584	584	1	0	1	-30	 30.0;
	126	158	0.0077	0.0538	0.335	540	540	540	1	0	1	-30	 30.0;
	126	169	0.0165	0.1157	0.171	251	251	251	1	0	1	-30	 30.0;
	127	128	0.0059	0.0577	0.095	506	506	506	0	0	1	-30	 30.0;
	127	134	0.0049	0.0336	0.208	864	864	864	0	0	1	-30	 30.0;
	127	168	0.0059	0.0577	0.095	506	506	506	0	0	0	-30	 30.0;
	128	130	0.0078	0.0773	0.126	378	378	378	0	0	1	-30	 30.0;
	128	133	0.0026	0.0193	0.03	1507	1507	1507	0	0	1	-30	 30.0;
	129	130	0.0076	0.0752	0.122	389	389	389	0	0	1	-30	 30.0;
	129	133	0.0021	0.0186	0.03	1568	1568	1568	0	0	1	-30	 30.0;
...
];

% INFO    : === Translation Options ===
% INFO    : Phase Angle Bound:           30.0 (deg.)
% INFO    : Line Capacity Model:         ub
% INFO    : Gen Active Capacity Model:   stat
% INFO    : Gen Reactive Capacity Model: am50ag
% INFO    : Gen Active Cost Model:       stat
% INFO    : Setting Flat Start
% INFO    : Line Capacity PAB:           15.0 (deg.)
% WARNING : No active generation at the slack bus, assigning type - NUC
% INFO    : 
% INFO    : === Generator Classification Notes ===
% INFO    : NUC    3   -    13.37
% INFO    : PEL    3   -     2.89
% INFO    : SYNC   12  -     0.00
% INFO    : COW    14  -    43.97
% INFO    : NG     37  -    39.77
% INFO    : 
% INFO    : === Generator Active Capacity Stat Model Notes ===
% INFO    : Gen at bus 8 - SYNC	: Pg=0.0, Pmax=100.0 -> Pmax=0   samples: 0
% INFO    : Gen at bus 10 - SYNC	: Pg=0.0, Pmax=100.0 -> Pmax=0   samples: 0
% INFO    : Gen at bus 20 - SYNC	: Pg=0.0, Pmax=100.0 -> Pmax=0   samples: 0
% INFO    : Gen at bus 63 - SYNC	: Pg=0.0, Pmax=100.0 -> Pmax=0   samples: 0
% INFO    : Gen at bus 76 - SYNC	: Pg=0.0, Pmax=100.0 -> Pmax=0   samples: 0
% INFO    : Gen at bus 84 - COW	: Pg=375.0, Pmax=475.0 -> Pmax=1448   samples: 2
% INFO    : Gen at bus 91 - NG	: Pg=155.0, Pmax=255.0 -> Pmax=185   samples: 2
% INFO    : Gen at bus 92 - NG	: Pg=290.0, Pmax=390.0 -> Pmax=360   samples: 8
% INFO    : Gen at bus 98 - NG	: Pg=68.0, Pmax=168.0 -> Pmax=93   samples: 1
% INFO    : Gen at bus 108 - NG	: Pg=117.0, Pmax=217.0 -> Pmax=197   samples: 4
% WARNING : Failed to find a generator capacity within (1930.0-9650.0) after 100 samples, using percent increase model
% INFO    : Gen at bus 119 - NUC	: Pg=1930.0, Pmax=2030.0 -> Pmax=2041   samples: 100
% INFO    : Gen at bus 124 - NG	: Pg=240.0, Pmax=340.0 -> Pmax=321   samples: 11
% INFO    : Gen at bus 125 - SYNC	: Pg=0.0, Pmax=100.0 -> Pmax=0   samples: 0
% INFO    : Gen at bus 138 - SYNC	: Pg=0.0, Pmax=100.0 -> Pmax=0   samples: 0
% INFO    : Gen at bus 141 - NG	: Pg=281.0, Pmax=381.0 -> Pmax=297   samples: 10
% INFO    : Gen at bus 143 - COW	: Pg=696.0, Pmax=796.0 -> Pmax=800   samples: 1
% INFO    : Gen at bus 146 - COW	: Pg=84.0, Pmax=184.0 -> Pmax=91   samples: 1
% INFO    : Gen at bus 147 - NG	: Pg=217.0, Pmax=317.0 -> Pmax=320   samples: 10
% INFO    : Gen at bus 149 - NG	: Pg=103.0, Pmax=203.0 -> Pmax=277   samples: 3
% INFO    : Gen at bus 152 - COW	: Pg=372.0, Pmax=472.0 -> Pmax=606   samples: 13
% INFO    : Gen at bus 153 - NG	: Pg=216.0, Pmax=316.0 -> Pmax=242   samples: 15
% INFO    : Gen at bus 156 - SYNC	: Pg=0.0, Pmax=100.0 -> Pmax=0   samples: 0
% INFO    : Gen at bus 170 - NG	: Pg=205.0, Pmax=305.0 -> Pmax=330   samples: 9
% INFO    : Gen at bus 171 - SYNC	: Pg=0.0, Pmax=100.0 -> Pmax=0   samples: 0
% INFO    : Gen at bus 176 - NG	: Pg=228.0, Pmax=328.0 -> Pmax=278   samples: 4
% INFO    : Gen at bus 177 - NG	: Pg=84.0, Pmax=184.0 -> Pmax=125   samples: 1
% INFO    : Gen at bus 185 - NG	: Pg=200.0, Pmax=300.0 -> Pmax=250   samples: 6
% INFO    : Gen at bus 186 - COW	: Pg=1200.0, Pmax=1300.0 -> Pmax=2465   samples: 13
% INFO    : Gen at bus 187 - COW	: Pg=1200.0, Pmax=1300.0 -> Pmax=1624   samples: 6
% INFO    : Gen at bus 190 - NG	: Pg=475.0, Pmax=575.0 -> Pmax=515   samples: 27
% WARNING : Failed to find a generator capacity within (1973.0-9865.0) after 100 samples, using percent increase model
% INFO    : Gen at bus 191 - COW	: Pg=1973.0, Pmax=2073.0 -> Pmax=2140   samples: 100
% INFO    : Gen at bus 198 - NG	: Pg=424.0, Pmax=524.0 -> Pmax=430   samples: 25
% INFO    : Gen at bus 213 - NG	: Pg=272.0, Pmax=372.0 -> Pmax=288   samples: 6
% INFO    : Gen at bus 220 - NG	: Pg=100.0, Pmax=200.0 -> Pmax=460   samples: 2
% INFO    : Gen at bus 221 - NG	: Pg=450.0, Pmax=550.0 -> Pmax=554   samples: 26
% INFO    : Gen at bus 222 - NG	: Pg=250.0, Pmax=350.0 -> Pmax=523   samples: 2
% INFO    : Gen at bus 227 - NG	: Pg=303.0, Pmax=403.0 -> Pmax=436   samples: 11
% INFO    : Gen at bus 230 - NG	: Pg=345.0, Pmax=445.0 -> Pmax=458   samples: 65
% INFO    : Gen at bus 233 - NG	: Pg=300.0, Pmax=400.0 -> Pmax=341   samples: 13
% INFO    : Gen at bus 236 - COW	: Pg=600.0, Pmax=700.0 -> Pmax=881   samples: 7
% INFO    : Gen at bus 238 - NG	: Pg=250.0, Pmax=350.0 -> Pmax=267   samples: 8
% WARNING : Failed to find a generator capacity within (550.0-2750.0) after 100 samples, using percent increase model
% INFO    : Gen at bus 239 - NG	: Pg=550.0, Pmax=650.0 -> Pmax=621   samples: 100
% INFO    : Gen at bus 241 - COW	: Pg=575.43, Pmax=675.43 -> Pmax=1127   samples: 6
% INFO    : Gen at bus 242 - PEL	: Pg=170.0, Pmax=270.0 -> Pmax=212   samples: 38
% INFO    : Gen at bus 243 - NG	: Pg=84.0, Pmax=184.0 -> Pmax=342   samples: 5
% INFO    : Gen at bus 7001 - NG	: Pg=467.0, Pmax=567.0 -> Pmax=568   samples: 99
% INFO    : Gen at bus 7002 - COW	: Pg=623.0, Pmax=723.0 -> Pmax=670   samples: 12
% INFO    : Gen at bus 7003 - NUC	: Pg=1210.0, Pmax=1310.0 -> Pmax=1401   samples: 9
% INFO    : Gen at bus 7011 - COW	: Pg=234.0, Pmax=334.0 -> Pmax=668   samples: 3
% INFO    : Gen at bus 7012 - NG	: Pg=372.0, Pmax=472.0 -> Pmax=626   samples: 68
% INFO    : Gen at bus 7017 - NG	: Pg=330.0, Pmax=430.0 -> Pmax=490   samples: 25
% INFO    : Gen at bus 7023 - NG	: Pg=185.0, Pmax=285.0 -> Pmax=220   samples: 1
% INFO    : Gen at bus 7024 - NG	: Pg=410.0, Pmax=510.0 -> Pmax=543   samples: 87
% WARNING : Failed to find a generator capacity within (500.0-2500.0) after 100 samples, using percent increase model
% INFO    : Gen at bus 7039 - PEL	: Pg=500.0, Pmax=600.0 -> Pmax=580   samples: 100
% INFO    : Gen at bus 7044 - NG	: Pg=37.0, Pmax=137.0 -> Pmax=132   samples: 3
% INFO    : Gen at bus 7049 - NUC	: Pg=0.0, Pmax=2399.01 -> Pmax=718   samples: 1
% INFO    : Gen at bus 7055 - NG	: Pg=45.0, Pmax=145.0 -> Pmax=158   samples: 2
% INFO    : Gen at bus 7057 - NG	: Pg=165.0, Pmax=265.0 -> Pmax=334   samples: 2
% INFO    : Gen at bus 7061 - COW	: Pg=400.0, Pmax=500.0 -> Pmax=1757   samples: 5
% INFO    : Gen at bus 7062 - NG	: Pg=400.0, Pmax=500.0 -> Pmax=568   samples: 23
% INFO    : Gen at bus 7071 - NG	: Pg=116.0, Pmax=216.0 -> Pmax=203   samples: 4
% INFO    : Gen at bus 7130 - COW	: Pg=1292.0, Pmax=1392.0 -> Pmax=1726   samples: 3
% INFO    : Gen at bus 7139 - COW	: Pg=700.0, Pmax=800.0 -> Pmax=2025   samples: 4
% WARNING : Failed to find a generator capacity within (553.0-2765.0) after 100 samples, using percent increase model
% INFO    : Gen at bus 7166 - NG	: Pg=553.0, Pmax=653.0 -> Pmax=624   samples: 100
% INFO    : Gen at bus 9002 - SYNC	: Pg=0.0, Pmax=100.0 -> Pmax=0   samples: 0
% INFO    : Gen at bus 9051 - SYNC	: Pg=0.0, Pmax=100.0 -> Pmax=0   samples: 0
% INFO    : Gen at bus 9053 - SYNC	: Pg=0.0, Pmax=100.0 -> Pmax=0   samples: 0
% INFO    : Gen at bus 9054 - NG	: Pg=50.0, Pmax=150.0 -> Pmax=84   samples: 1
% INFO    : Gen at bus 9055 - PEL	: Pg=8.0, Pmax=108.0 -> Pmax=37   samples: 1
% INFO    : 
% INFO    : === Generator Reactive Capacity Atmost Max 50 Percent Active Model Notes ===
% INFO    : Gen at bus 91 - NG	: Pmax 185.0, Qmin -11.0, Qmax 96.0 -> Qmin -11.0, Qmax 93.0
% INFO    : Gen at bus 98 - NG	: Pmax 93.0, Qmin -30.0, Qmax 56.0 -> Qmin -30.0, Qmax 47.0
% INFO    : Gen at bus 119 - NUC	: Pmax 2041.0, Qmin -500.0, Qmax 1500.0 -> Qmin -500.0, Qmax 1021.0
% INFO    : Gen at bus 190 - NG	: Pmax 515.0, Qmin -300.0, Qmax 300.0 -> Qmin -258.0, Qmax 258.0
% INFO    : Gen at bus 198 - NG	: Pmax 430.0, Qmin -260.0, Qmax 260.0 -> Qmin -215.0, Qmax 215.0
% INFO    : Gen at bus 213 - NG	: Pmax 288.0, Qmin -150.0, Qmax 150.0 -> Qmin -144.0, Qmax 144.0
% INFO    : Gen at bus 221 - NG	: Pmax 554.0, Qmin -320.0, Qmax 320.0 -> Qmin -277.0, Qmax 277.0
% INFO    : Gen at bus 222 - NG	: Pmax 523.0, Qmin -300.0, Qmax 300.0 -> Qmin -262.0, Qmax 262.0
% INFO    : Gen at bus 227 - NG	: Pmax 436.0, Qmin -300.0, Qmax 300.0 -> Qmin -218.0, Qmax 218.0
% INFO    : Gen at bus 230 - NG	: Pmax 458.0, Qmin -250.0, Qmax 250.0 -> Qmin -229.0, Qmax 229.0
% INFO    : Gen at bus 233 - NG	: Pmax 341.0, Qmin -500.0, Qmax 500.0 -> Qmin -171.0, Qmax 171.0
% INFO    : Gen at bus 238 - NG	: Pmax 267.0, Qmin -200.0, Qmax 200.0 -> Qmin -134.0, Qmax 134.0
% INFO    : Gen at bus 239 - NG	: Pmax 621.0, Qmin -400.0, Qmax 400.0 -> Qmin -311.0, Qmax 311.0
% INFO    : Gen at bus 241 - COW	: Pmax 1127.0, Qmin -600.0, Qmax 600.0 -> Qmin -564.0, Qmax 564.0
% INFO    : Gen at bus 7017 - NG	: Pmax 490.0, Qmin 0.0, Qmax 350.0 -> Qmin 0.0, Qmax 245.0
% INFO    : Gen at bus 7023 - NG	: Pmax 220.0, Qmin 0.0, Qmax 120.0 -> Qmin 0.0, Qmax 110.0
% INFO    : 
% INFO    : === Generator Active Cost Stat Model Notes ===
% INFO    : Updated Generator Cost: SYNC - 0.0 40.0 0.01 -> 0 0.0 0
% INFO    : Updated Generator Cost: SYNC - 0.0 40.0 0.01 -> 0 0.0 0
% INFO    : Updated Generator Cost: SYNC - 0.0 40.0 0.01 -> 0 0.0 0
% INFO    : Updated Generator Cost: SYNC - 0.0 40.0 0.01 -> 0 0.0 0
% INFO    : Updated Generator Cost: SYNC - 0.0 40.0 0.01 -> 0 0.0 0
% INFO    : Updated Generator Cost: COW - 0.0 20.0 0.0266667 -> 0 22.4098347064 0
% INFO    : Updated Generator Cost: NG - 0.0 20.0 0.0645161 -> 0 46.1000538955 0
% INFO    : Updated Generator Cost: NG - 0.0 20.0 0.0344828 -> 0 54.1649390883 0
% INFO    : Updated Generator Cost: NG - 0.0 20.0 0.147059 -> 0 27.2384159201 0
% INFO    : Updated Generator Cost: NG - 0.0 20.0 0.0854701 -> 0 38.4307223234 0
% INFO    : Updated Generator Cost: NUC - 0.0 20.0 0.00518135 -> 0 7.69890795501 0
% INFO    : Updated Generator Cost: NG - 0.0 20.0 0.0416667 -> 0 26.7541276871 0
% INFO    : Updated Generator Cost: SYNC - 0.0 40.0 0.01 -> 0 0.0 0
% INFO    : Updated Generator Cost: SYNC - 0.0 40.0 0.01 -> 0 0.0 0
% INFO    : Updated Generator Cost: NG - 0.0 20.0 0.0355872 -> 0 30.5979157367 0
% INFO    : Updated Generator Cost: COW - 0.0 20.0 0.0143678 -> 0 30.7586659727 0
% INFO    : Updated Generator Cost: COW - 0.0 20.0 0.119048 -> 0 19.2922809396 0
% INFO    : Updated Generator Cost: NG - 0.0 20.0 0.0460829 -> 0 49.8618547953 0
% INFO    : Updated Generator Cost: NG - 0.0 20.0 0.0970874 -> 0 35.8423627743 0
% INFO    : Updated Generator Cost: COW - 0.0 20.0 0.0268817 -> 0 34.9559652667 0
% INFO    : Updated Generator Cost: NG - 0.0 20.0 0.0462963 -> 0 22.7627223623 0
% INFO    : Updated Generator Cost: SYNC - 0.0 40.0 0.01 -> 0 0.0 0
% INFO    : Updated Generator Cost: NG - 0.0 20.0 0.0487805 -> 0 35.3759736401 0
% INFO    : Updated Generator Cost: SYNC - 0.0 40.0 0.01 -> 0 0.0 0
% INFO    : Updated Generator Cost: NG - 0.0 20.0 0.0438596 -> 0 33.8685243329 0
% INFO    : Updated Generator Cost: NG - 0.0 20.0 0.119048 -> 0 29.0312647892 0
% INFO    : Updated Generator Cost: NG - 0.0 20.0 0.05 -> 0 28.3915172515 0
% INFO    : Updated Generator Cost: COW - 0.0 20.0 0.00833333 -> 0 1.00020278828 0
% INFO    : Updated Generator Cost: COW - 0.0 20.0 0.00833333 -> 0 27.2785376131 0
% INFO    : Updated Generator Cost: NG - 0.0 20.0 0.0210526 -> 0 49.1557097142 0
% INFO    : Updated Generator Cost: COW - 0.0 20.0 0.00506842 -> 0 24.0626550844 0
% INFO    : Updated Generator Cost: NG - 0.0 20.0 0.0235849 -> 0 31.0166636721 0
% INFO    : Updated Generator Cost: NG - 0.0 20.0 0.0367647 -> 0 49.721798725 0
% INFO    : Updated Generator Cost: NG - 0.0 20.0 0.1 -> 0 21.2916647901 0
% INFO    : Updated Generator Cost: NG - 0.0 20.0 0.0222222 -> 0 31.4370309813 0
% INFO    : Updated Generator Cost: NG - 0.0 20.0 0.04 -> 0 50.8428686002 0
% INFO    : Updated Generator Cost: NG - 0.0 20.0 0.0330033 -> 0 28.0104597031 0
% INFO    : Updated Generator Cost: NG - 0.0 20.0 0.0289855 -> 0 39.8285724294 0
% INFO    : Updated Generator Cost: NG - 0.0 20.0 0.0333333 -> 0 35.6507788821 0
% INFO    : Updated Generator Cost: COW - 0.0 20.0 0.0166667 -> 0 32.6212661116 0
% INFO    : Updated Generator Cost: NG - 0.0 20.0 0.04 -> 0 39.6576878063 0
% INFO    : Updated Generator Cost: NG - 0.0 20.0 0.0181818 -> 0 41.2233124228 0
% INFO    : Updated Generator Cost: COW - 0.0 20.0 0.0173783 -> 0 39.06472056 0
% INFO    : Updated Generator Cost: PEL - 0.0 20.0 0.0588235 -> 0 116.939408599 0
% INFO    : Updated Generator Cost: NG - 0.0 20.0 0.119048 -> 0 34.3365622827 0
% INFO    : Updated Generator Cost: NG - 0.0 20.0 0.0214133 -> 0 38.2748782917 0
% INFO    : Updated Generator Cost: COW - 0.0 20.0 0.0160514 -> 0 23.466762456 0
% INFO    : Updated Generator Cost: NUC - 0.0 20.0 0.00826446 -> 0 7.50995927659 0
% INFO    : Updated Generator Cost: COW - 0.0 20.0 0.042735 -> 0 26.6829650924 0
% INFO    : Updated Generator Cost: NG - 0.0 20.0 0.0268817 -> 0 28.4348675489 0
% INFO    : Updated Generator Cost: NG - 0.0 20.0 0.030303 -> 0 35.1266514816 0
% INFO    : Updated Generator Cost: NG - 0.0 20.0 0.0540541 -> 0 51.0623971719 0
% INFO    : Updated Generator Cost: NG - 0.0 20.0 0.0243902 -> 0 29.9920150949 0
% INFO    : Updated Generator Cost: PEL - 0.0 20.0 0.02 -> 0 103.987496331 0
% INFO    : Updated Generator Cost: NG - 0.0 20.0 0.27027 -> 0 38.8256893275 0
% INFO    : Updated Generator Cost: NUC - 0.0 40.0 0.01 -> 0 6.8430722092 0
% INFO    : Updated Generator Cost: NG - 0.0 20.0 0.222222 -> 0 29.7725621102 0
% INFO    : Updated Generator Cost: NG - 0.0 20.0 0.0606061 -> 0 62.4271028397 0
% INFO    : Updated Generator Cost: COW - 0.0 20.0 0.025 -> 0 20.8115145801 0
% INFO    : Updated Generator Cost: NG - 0.0 20.0 0.025 -> 0 26.5078895412 0
% INFO    : Updated Generator Cost: NG - 0.0 20.0 0.0862069 -> 0 31.5875166573 0
% INFO    : Updated Generator Cost: COW - 0.0 20.0 0.00773994 -> 0 29.7599241875 0
% INFO    : Updated Generator Cost: COW - 0.0 20.0 0.0142857 -> 0 36.1790551222 0
% INFO    : Updated Generator Cost: NG - 0.0 20.0 0.0180832 -> 0 36.90836687 0
% INFO    : Updated Generator Cost: SYNC - 0.0 40.0 0.01 -> 0 0.0 0
% INFO    : Updated Generator Cost: SYNC - 0.0 40.0 0.01 -> 0 0.0 0
% INFO    : Updated Generator Cost: SYNC - 0.0 40.0 0.01 -> 0 0.0 0
% INFO    : Updated Generator Cost: NG - 0.0 20.0 0.2 -> 0 32.9614726645 0
% INFO    : Updated Generator Cost: PEL - 0.0 20.0 1.25 -> 0 94.7582086867 0
% INFO    : 
% INFO    : === Generator Bounds Update Notes ===
% INFO    : 
% INFO    : === Base KV Replacement Notes ===
% INFO    : 
% INFO    : === Transformer Setting Replacement Notes ===
% WARNING : Branch 33-34 connects two different voltage levels (115.0, 345.0), changing tap ratio 0.0 => 1.0
% WARNING : Branch 41-42 connects two different voltage levels (115.0, 345.0), changing tap ratio 0.0 => 1.0
% WARNING : Branch 126-127 connects two different voltage levels (115.0, 230.0), changing tap ratio 0.0 => 1.0
% WARNING : Branch 126-129 connects two different voltage levels (115.0, 230.0), changing tap ratio 0.0 => 1.0
% WARNING : Branch 126-132 connects two different voltage levels (115.0, 230.0), changing tap ratio 0.0 => 1.0
% WARNING : Branch 126-157 connects two different voltage levels (115.0, 230.0), changing tap ratio 0.0 => 1.0
% WARNING : Branch 126-158 connects two different voltage levels (115.0, 230.0), changing tap ratio 0.0 => 1.0
% WARNING : Branch 126-169 connects two different voltage levels (115.0, 230.0), changing tap ratio 0.0 => 1.0
% WARNING : Branch 133-171 connects two different voltage levels (230.0, 115.0), changing tap ratio 0.0 => 1.0
% WARNING : Branch 148-178 connects two different voltage levels (230.0, 115.0), changing tap ratio 0.0 => 1.0
% WARNING : Branch 148-179 connects two different voltage levels (230.0, 115.0), changing tap ratio 0.0 => 1.0
% WARNING : Branch 190-240 connects two different voltage levels (345.0, 230.0), changing tap ratio 0.0 => 1.0
% WARNING : Branch 198-202 connects two different voltage levels (115.0, 66.0), changing tap ratio 0.0 => 1.0
% WARNING : Branch 217-219 connects two different voltage levels (138.0, 345.0), changing tap ratio 0.0 => 1.0
% WARNING : Branch 226-231 connects two different voltage levels (230.0, 345.0), changing tap ratio 0.0 => 1.0
% WARNING : Branch 228-231 connects two different voltage levels (138.0, 345.0), changing tap ratio 0.0 => 1.0
% WARNING : Branch 229-190 connects two different voltage levels (138.0, 345.0), changing tap ratio 0.0 => 1.0
% WARNING : Branch 231-232 connects two different voltage levels (345.0, 138.0), changing tap ratio 0.0 => 1.0
% WARNING : Branch 232-233 connects two different voltage levels (138.0, 66.0), changing tap ratio 0.0 => 1.0
% WARNING : Branch 234-237 connects two different voltage levels (138.0, 345.0), changing tap ratio 0.0 => 1.0
% WARNING : Branch 242-245 connects two different voltage levels (138.0, 66.0), changing tap ratio 0.0 => 1.0
% WARNING : Branch 242-247 connects two different voltage levels (138.0, 66.0), changing tap ratio 0.0 => 1.0
% INFO    : 
% INFO    : === Line Capacity UB Model Notes ===
% INFO    : Updated Thermal Rating: on transformer 37-9001 : Rate B , 0.0 -> 63230
% INFO    : Updated Thermal Rating: on line 9001-9005 : Rate A, Rate B, Rate C , 9900.0, 0.0, 0.0 -> 8215
% INFO    : Updated Thermal Rating: on transformer 9001-9006 : Rate A, Rate B, Rate C , 9900.0, 0.0, 0.0 -> 68
% INFO    : Updated Thermal Rating: on transformer 9001-9012 : Rate A, Rate B, Rate C , 9900.0, 0.0, 0.0 -> 46
% INFO    : Updated Thermal Rating: on transformer 9005-9051 : Rate A, Rate B, Rate C , 9900.0, 0.0, 0.0 -> 79
% INFO    : Updated Thermal Rating: on transformer 9005-9052 : Rate A, Rate B, Rate C , 9900.0, 0.0, 0.0 -> 79
% INFO    : Updated Thermal Rating: on transformer 9005-9053 : Rate A, Rate B, Rate C , 9900.0, 0.0, 0.0 -> 78
% INFO    : Updated Thermal Rating: on transformer 9005-9054 : Rate A, Rate B, Rate C , 9900.0, 0.0, 0.0 -> 193
% INFO    : Updated Thermal Rating: on transformer 9005-9055 : Rate A, Rate B, Rate C , 9900.0, 0.0, 0.0 -> 37
% INFO    : Updated Thermal Rating: on line 9006-9007 : Rate A, Rate B, Rate C , 9900.0, 0.0, 0.0 -> 117
% INFO    : Updated Thermal Rating: on line 9006-9003 : Rate A, Rate B, Rate C , 9900.0, 0.0, 0.0 -> 59
% INFO    : Updated Thermal Rating: on line 9006-9003 : Rate A, Rate B, Rate C , 9900.0, 0.0, 0.0 -> 59
% INFO    : Updated Thermal Rating: on line 9012-9002 : Rate A, Rate B, Rate C , 9900.0, 0.0, 0.0 -> 67
% INFO    : Updated Thermal Rating: on line 9012-9002 : Rate A, Rate B, Rate C , 9900.0, 0.0, 0.0 -> 67
% INFO    : Updated Thermal Rating: on line 9002-9021 : Rate A, Rate B, Rate C , 9900.0, 0.0, 0.0 -> 332
% INFO    : Updated Thermal Rating: on line 9021-9023 : Rate A, Rate B, Rate C , 9900.0, 0.0, 0.0 -> 21
% INFO    : Updated Thermal Rating: on transformer 9021-9022 : Rate A, Rate B, Rate C , 9900.0, 0.0, 0.0 -> 11
% INFO    : Updated Thermal Rating: on transformer 9002-9024 : Rate A, Rate B, Rate C , 9900.0, 0.0, 0.0 -> 9
% INFO    : Updated Thermal Rating: on transformer 9023-9025 : Rate A, Rate B, Rate C , 9900.0, 0.0, 0.0 -> 8
% INFO    : Updated Thermal Rating: on transformer 9023-9026 : Rate A, Rate B, Rate C , 9900.0, 0.0, 0.0 -> 8
% INFO    : Updated Thermal Rating: on transformer 9007-9071 : Rate A, Rate B, Rate C , 9900.0, 0.0, 0.0 -> 10
% INFO    : Updated Thermal Rating: on transformer 9007-9072 : Rate A, Rate B, Rate C , 9900.0, 0.0, 0.0 -> 15
% INFO    : Updated Thermal Rating: on line 9007-9003 : Rate A, Rate B, Rate C , 9900.0, 0.0, 0.0 -> 116
% INFO    : Updated Thermal Rating: on transformer 9003-9031 : Rate A, Rate B, Rate C , 9900.0, 0.0, 0.0 -> 7
% INFO    : Updated Thermal Rating: on transformer 9003-9032 : Rate A, Rate B, Rate C , 9900.0, 0.0, 0.0 -> 6
% INFO    : Updated Thermal Rating: on transformer 9003-9033 : Rate A, Rate B, Rate C , 9900.0, 0.0, 0.0 -> 7
% INFO    : Updated Thermal Rating: on line 9003-9044 : Rate A, Rate B, Rate C , 9900.0, 0.0, 0.0 -> 302
% INFO    : Updated Thermal Rating: on line 9044-9004 : Rate A, Rate B, Rate C , 9900.0, 0.0, 0.0 -> 611
% INFO    : Updated Thermal Rating: on transformer 9004-9041 : Rate A, Rate B, Rate C , 9900.0, 0.0, 0.0 -> 12
% INFO    : Updated Thermal Rating: on transformer 9004-9042 : Rate A, Rate B, Rate C , 9900.0, 0.0, 0.0 -> 6
% INFO    : Updated Thermal Rating: on transformer 9004-9043 : Rate A, Rate B, Rate C , 9900.0, 0.0, 0.0 -> 18
% INFO    : Updated Thermal Rating: on transformer 9003-9034 : Rate A, Rate B, Rate C , 9900.0, 0.0, 0.0 -> 21
% INFO    : Updated Thermal Rating: on transformer 9003-9035 : Rate A, Rate B, Rate C , 9900.0, 0.0, 0.0 -> 9
% INFO    : Updated Thermal Rating: on transformer 9003-9036 : Rate A, Rate B, Rate C , 9900.0, 0.0, 0.0 -> 18
% INFO    : Updated Thermal Rating: on transformer 9003-9037 : Rate A, Rate B, Rate C , 9900.0, 0.0, 0.0 -> 12
% INFO    : Updated Thermal Rating: on transformer 9003-9038 : Rate A, Rate B, Rate C , 9900.0, 0.0, 0.0 -> 10
% INFO    : Updated Thermal Rating: on line 9012-9121 : Rate A, Rate B, Rate C , 9900.0, 0.0, 0.0 -> 29
...